backend/app/cases/sistema_paraguay_brasil.m
function mpc = sistema_paraguay_brasil
% Caso importado de ANAREDE - sistema_paraguay_brasil

mpc.version = '2';
mpc.baseMVA = 100.0;

%% Datos de Barras
%  bus_i type Pd Qd Gs Bs area Vm Va baseKV zone Vmax Vmin
mpc.bus = [
    48	2	0.000	0.000	0.000	15.000	1	0.0000	4.120	220.0	1	1.100	0.900;
    85	1	66.000	0.000	0.000	0.000	1	1.0900	4.120	220.0	1	1.100	0.900;
    86	1	-3150.000	700.000	0.000	15.000	1	1.0900	4.130	220.0	1	1.100	0.900;
    87	3	0.000	0.000	0.000	15.000	1	0.0000	0.000	220.0	1	1.100	0.900;
    5518	1	0.000	0.000	0.000	6.000	1	1.0140	-45.000	220.0	1	1.100	0.900;
    5411	1	0.000	0.000	0.000	6.000	1	1.0150	-42.000	220.0	1	1.100	0.900;
    183	2	35.000	0.000	0.000	2.000	1	0.0000	-9.800	220.0	1	1.100	0.900;
    184	2	35.000	0.000	0.000	2.000	1	0.0000	-9.800	220.0	1	1.100	0.900;
    201	1	147.700	51.320	0.000	0.000	1	0.0000	0.000	220.0	1	1.100	0.900;
    203	1	22.950	8.030	0.000	0.000	1	0.0000	5.000	220.0	1	1.100	0.900;
    204	1	63.900	21.300	0.000	0.000	1	0.0000	0.000	220.0	1	1.100	0.900;
    206	1	98.940	29.850	0.000	0.000	1	0.0000	4.000	220.0	1	1.100	0.900;
    207	1	1.360	0.560	0.000	0.000	1	0.0000	2.000	220.0	1	1.100	0.900;
    208	1	66.600	21.480	0.000	0.000	1	0.0000	0.000	220.0	1	1.100	0.900;
    209	1	3.060	0.770	0.000	6.000	1	1.0090	39.000	220.0	1	1.100	0.900;
    211	1	27.890	9.340	0.000	0.000	1	0.0000	6.000	220.0	1	1.100	0.900;
    212	1	28.120	7.910	0.000	0.000	1	0.0000	0.000	220.0	1	1.100	0.900;
    213	1	53.640	20.780	0.000	0.000	1	0.0000	4.000	220.0	1	1.100	0.900;
    214	1	33.620	11.660	0.000	0.000	1	0.0000	2.000	220.0	1	1.100	0.900;
    215	1	14.060	5.410	0.000	0.000	1	0.0000	0.000	220.0	1	1.100	0.900;
    216	1	129.000	49.760	0.000	0.000	1	0.0000	5.000	220.0	1	1.100	0.900;
    219	1	16.490	5.500	0.000	0.000	1	0.0000	5.000	220.0	1	1.100	0.900;
    220	1	59.110	23.480	0.000	0.000	1	0.0000	0.000	220.0	1	1.100	0.900;
    221	1	152.300	66.620	0.000	0.000	1	0.0000	0.000	220.0	1	1.100	0.900;
    222	1	10.510	2.370	0.000	0.000	1	0.0000	3.000	220.0	1	1.100	0.900;
    223	1	54.340	24.770	0.000	0.000	1	0.0000	0.000	220.0	1	1.100	0.900;
    224	1	77.960	23.440	0.000	0.000	1	0.0000	4.000	220.0	1	1.100	0.900;
    225	1	23.110	11.560	0.000	0.000	1	0.0000	2.000	220.0	1	1.100	0.900;
    226	1	11.700	1.760	0.000	0.000	1	0.0000	0.000	220.0	1	1.100	0.900;
    227	1	61.680	20.960	0.000	0.000	1	0.0000	7.000	220.0	1	1.100	0.900;
    228	1	9.420	3.240	0.000	0.000	1	0.0000	3.000	220.0	1	1.100	0.900;
    229	1	8.350	2.680	0.000	6.000	1	0.0000	5.000	220.0	1	1.100	0.900;
    231	1	64.660	19.690	0.000	0.000	1	0.0000	0.000	220.0	1	1.100	0.900;
    233	1	42.740	11.710	0.000	0.000	1	0.0000	8.000	220.0	1	1.100	0.900;
    234	1	30.860	5.250	0.000	0.000	1	0.0000	1.000	220.0	1	1.100	0.900;
    235	1	11.160	3.730	0.000	0.000	1	0.0000	3.000	220.0	1	1.100	0.900;
    237	1	16.290	5.460	0.000	0.000	1	0.0000	0.000	220.0	1	1.100	0.900;
    238	1	4.360	1.730	0.000	0.000	1	0.0000	0.000	220.0	1	1.100	0.900;
    239	1	74.480	24.830	0.000	0.000	1	1.0090	46.000	220.0	1	1.100	0.900;
    240	1	27.080	7.790	0.000	0.000	1	0.0000	3.000	220.0	1	1.100	0.900;
    241	1	46.490	10.550	0.000	0.000	1	0.0000	0.000	220.0	1	1.100	0.900;
    244	1	32.200	9.400	0.000	0.000	1	0.0000	0.000	220.0	1	1.100	0.900;
    246	1	41.010	13.670	0.000	0.000	1	0.0000	0.000	220.0	1	1.100	0.900;
    249	1	8.470	2.490	0.000	0.000	1	0.0000	5.000	220.0	1	1.100	0.900;
    250	1	22.540	10.400	0.000	2.000	1	0.0000	2.000	220.0	1	1.100	0.900;
    251	1	13.570	3.890	0.000	2.000	1	0.0000	9.000	220.0	1	1.100	0.900;
    252	1	7.390	2.310	0.000	0.000	1	0.0000	0.000	220.0	1	1.100	0.900;
    253	1	35.670	14.020	0.000	0.000	1	0.0000	6.000	220.0	1	1.100	0.900;
    254	1	36.850	11.730	0.000	0.000	1	0.0000	0.000	220.0	1	1.100	0.900;
    255	1	8.090	2.310	0.000	0.000	1	0.0000	1.000	220.0	1	1.100	0.900;
    256	1	18.510	6.540	0.000	3.000	1	0.0000	6.000	220.0	1	1.100	0.900;
    257	1	5.840	2.880	0.000	3.000	1	0.0000	3.000	220.0	1	1.100	0.900;
    258	1	28.880	8.670	0.000	0.000	1	0.0000	0.000	220.0	1	1.100	0.900;
    260	1	97.100	38.840	0.000	0.000	1	0.0000	0.000	220.0	1	1.100	0.900;
    261	1	1.270	0.500	0.000	6.000	1	0.0000	0.000	220.0	1	1.100	0.900;
    262	1	14.620	5.490	0.000	0.000	1	0.0000	0.000	220.0	1	1.100	0.900;
    264	1	6.200	3.560	0.000	5.000	1	0.0000	0.000	220.0	1	1.100	0.900;
    265	1	0.000	0.000	0.000	5.000	1	0.0000	0.000	220.0	1	1.100	0.900;
    266	1	39.710	20.960	0.000	0.000	1	0.0000	0.000	220.0	1	1.100	0.900;
    267	1	18.420	6.140	0.000	0.000	1	0.0000	0.000	220.0	1	1.100	0.900;
    268	1	19.040	8.490	0.000	0.000	1	0.0000	0.000	220.0	1	1.100	0.900;
    269	1	10.220	3.050	0.000	0.000	1	0.0000	0.000	220.0	1	1.100	0.900;
    270	1	4.280	1.430	0.000	5.000	1	0.0000	0.000	220.0	1	1.100	0.900;
    271	1	35.180	13.480	0.000	0.000	1	0.0000	0.000	220.0	1	1.100	0.900;
    273	1	53.370	18.310	0.000	0.000	1	0.0000	2.000	220.0	1	1.100	0.900;
    274	1	7.900	2.400	0.000	0.000	1	0.0000	0.000	220.0	1	1.100	0.900;
    276	1	25.420	11.160	0.000	0.000	1	0.0000	0.000	220.0	1	1.100	0.900;
    278	1	19.930	6.640	0.000	0.000	1	0.0000	0.000	220.0	1	1.100	0.900;
    279	1	13.290	4.290	0.000	0.000	1	0.0000	0.000	220.0	1	1.100	0.900;
    280	1	13.550	3.390	0.000	3.000	1	0.0000	7.000	220.0	1	1.100	0.900;
    281	1	10.530	3.090	0.000	2.000	1	0.0000	0.000	220.0	1	1.100	0.900;
    282	1	28.710	13.160	0.000	0.000	1	0.0000	0.000	220.0	1	1.100	0.900;
    284	1	86.900	29.330	0.000	0.000	1	0.0000	0.000	220.0	1	1.100	0.900;
    285	1	16.310	9.920	0.000	0.000	1	0.0000	3.000	220.0	1	1.100	0.900;
    286	1	12.420	4.320	0.000	8.000	1	0.0000	0.000	220.0	1	1.100	0.900;
    287	1	12.400	4.000	0.000	0.000	1	0.0000	0.000	220.0	1	1.100	0.900;
    288	1	26.930	7.930	0.000	0.000	1	0.0000	4.000	220.0	1	1.100	0.900;
    289	1	42.920	21.050	0.000	0.000	1	0.0000	9.000	220.0	1	1.100	0.900;
    290	1	23.610	8.140	0.000	0.000	1	0.0000	8.000	220.0	1	1.100	0.900;
    292	1	17.810	6.510	0.000	0.000	1	0.0000	5.000	220.0	1	1.100	0.900;
    293	1	95.270	32.010	0.000	0.000	1	0.0000	6.000	220.0	1	1.100	0.900;
    295	1	30.980	11.960	0.000	0.000	1	0.0000	8.000	220.0	1	1.100	0.900;
    296	1	58.290	10.410	0.000	0.000	1	0.0000	7.000	220.0	1	1.100	0.900;
    297	1	50.680	14.190	0.000	0.000	1	0.0000	7.000	220.0	1	1.100	0.900;
    298	1	49.250	15.650	0.000	0.000	1	0.0000	7.000	220.0	1	1.100	0.900;
    299	1	18.310	6.590	0.000	0.000	1	0.0000	0.000	220.0	1	1.100	0.900;
    301	1	0.000	0.000	0.000	6.000	1	0.0000	3.000	220.0	1	1.100	0.900;
    303	1	0.000	0.000	0.000	6.000	1	0.0000	0.000	220.0	1	1.100	0.900;
    304	1	0.000	0.000	0.000	6.000	1	0.0000	4.000	220.0	1	1.100	0.900;
    305	1	7.220	0.000	0.000	6.000	1	0.0000	2.000	220.0	1	1.100	0.900;
    306	1	0.000	0.000	0.000	6.000	1	0.0000	2.000	220.0	1	1.100	0.900;
    307	1	9.810	3.070	0.000	6.000	1	0.0000	2.000	220.0	1	1.100	0.900;
    308	1	0.000	0.000	0.000	6.000	1	0.0000	0.000	220.0	1	1.100	0.900;
    311	1	0.000	0.000	0.000	6.000	1	0.0000	3.000	220.0	1	1.100	0.900;
    313	1	0.000	0.000	0.000	6.000	1	0.0000	2.000	220.0	1	1.100	0.900;
    316	1	0.000	0.000	0.000	6.000	1	0.0000	2.000	220.0	1	1.100	0.900;
    317	1	1.800	0.360	0.000	2.000	1	0.0000	1.000	220.0	1	1.100	0.900;
    319	1	0.000	0.000	0.000	2.000	1	0.0000	1.000	220.0	1	1.100	0.900;
    320	1	0.000	0.000	0.000	6.000	1	0.0000	3.000	220.0	1	1.100	0.900;
    322	1	0.000	0.000	0.000	4.000	1	0.0000	1.000	220.0	1	1.100	0.900;
    323	1	0.000	0.000	0.000	6.000	1	0.0000	0.000	220.0	1	1.100	0.900;
    324	1	0.000	0.000	0.000	6.000	1	0.0000	2.000	220.0	1	1.100	0.900;
    325	1	0.000	0.000	0.000	6.000	1	0.0000	9.000	220.0	1	1.100	0.900;
    326	1	0.000	0.000	0.000	6.000	1	0.0000	1.000	220.0	1	1.100	0.900;
    327	1	0.000	0.000	0.000	6.000	1	0.0000	2.000	220.0	1	1.100	0.900;
    328	1	0.000	0.000	0.000	4.000	1	0.0000	2.000	220.0	1	1.100	0.900;
    329	1	0.000	0.000	0.000	6.000	1	0.0000	3.000	220.0	1	1.100	0.900;
    331	1	0.000	0.000	0.000	6.000	1	0.0000	0.000	220.0	1	1.100	0.900;
    333	1	0.000	0.000	0.000	6.000	1	0.0000	2.000	220.0	1	1.100	0.900;
    334	1	0.000	0.000	0.000	6.000	1	0.0000	0.000	220.0	1	1.100	0.900;
    335	1	0.000	0.000	0.000	6.000	1	0.0000	0.000	220.0	1	1.100	0.900;
    337	1	0.000	0.000	0.000	6.000	1	0.0000	9.000	220.0	1	1.100	0.900;
    338	1	0.000	0.000	0.000	6.000	1	0.0000	9.000	220.0	1	1.100	0.900;
    339	1	0.000	0.000	0.000	6.000	1	0.0000	0.000	220.0	1	1.100	0.900;
    340	1	0.000	0.000	0.000	6.000	1	0.0000	2.000	220.0	1	1.100	0.900;
    341	1	0.000	0.000	0.000	6.000	1	0.0000	0.000	220.0	1	1.100	0.900;
    343	1	0.000	0.000	0.000	6.000	1	0.0000	0.000	220.0	1	1.100	0.900;
    344	1	0.000	0.000	0.000	6.000	1	0.0000	3.000	220.0	1	1.100	0.900;
    346	1	0.000	0.000	0.000	6.000	1	0.0000	0.000	220.0	1	1.100	0.900;
    350	1	0.000	0.000	0.000	2.000	1	0.0000	0.000	220.0	1	1.100	0.900;
    351	1	0.000	0.000	0.000	2.000	1	0.0000	2.000	220.0	1	1.100	0.900;
    354	1	0.000	0.000	0.000	3.000	1	0.0000	7.000	220.0	1	1.100	0.900;
    355	1	0.000	0.000	0.000	3.000	1	0.0000	0.000	220.0	1	1.100	0.900;
    357	1	0.000	0.000	0.000	3.000	1	0.0000	0.000	220.0	1	1.100	0.900;
    358	1	0.000	0.000	0.000	3.000	1	0.0000	0.000	220.0	1	1.100	0.900;
    360	1	0.000	0.000	0.000	3.000	1	0.0000	2.000	220.0	1	1.100	0.900;
    361	1	0.000	0.000	0.000	6.000	1	0.0000	8.000	220.0	1	1.100	0.900;
    362	1	0.000	0.000	0.000	3.000	1	0.0000	7.000	220.0	1	1.100	0.900;
    365	1	0.000	0.000	0.000	5.000	1	0.0000	0.000	220.0	1	1.100	0.900;
    367	1	0.000	0.000	0.000	4.000	1	0.0000	0.000	220.0	1	1.100	0.900;
    368	1	0.000	0.000	0.000	5.000	1	0.0000	9.000	220.0	1	1.100	0.900;
    369	1	0.000	0.000	0.000	5.000	1	0.0000	0.000	220.0	1	1.100	0.900;
    370	1	0.000	0.000	0.000	5.000	1	0.0000	0.000	220.0	1	1.100	0.900;
    371	1	0.000	0.000	0.000	5.000	1	0.0000	5.000	220.0	1	1.100	0.900;
    372	1	0.000	0.000	0.000	5.000	1	0.0000	1.000	220.0	1	1.100	0.900;
    373	1	0.000	0.000	0.000	4.000	1	0.0000	2.000	220.0	1	1.100	0.900;
    374	1	0.000	0.000	0.000	8.000	1	0.0000	0.000	220.0	1	1.100	0.900;
    375	1	0.000	0.000	0.000	4.000	1	0.0000	8.000	220.0	1	1.100	0.900;
    376	1	0.000	0.000	0.000	4.000	1	0.0000	4.000	220.0	1	1.100	0.900;
    378	1	0.000	0.000	0.000	3.000	1	0.0000	0.000	220.0	1	1.100	0.900;
    379	1	0.000	0.000	0.000	8.000	1	0.0000	0.000	220.0	1	1.100	0.900;
    380	1	0.000	0.000	0.000	3.000	1	0.0000	4.000	220.0	1	1.100	0.900;
    382	1	0.000	0.000	0.000	2.000	1	0.0000	0.000	220.0	1	1.100	0.900;
    384	1	0.000	0.000	0.000	2.000	1	0.0000	7.000	220.0	1	1.100	0.900;
    386	1	0.000	0.000	0.000	8.000	1	0.0000	3.000	220.0	1	1.100	0.900;
    388	1	0.000	0.000	0.000	2.000	1	0.0000	1.000	220.0	1	1.100	0.900;
    389	1	0.000	0.000	0.000	2.000	1	0.0000	7.000	220.0	1	1.100	0.900;
    390	1	0.000	0.000	0.000	2.000	1	0.0000	8.000	220.0	1	1.100	0.900;
    392	1	0.000	0.000	0.000	2.000	1	0.0000	1.000	220.0	1	1.100	0.900;
    393	1	0.480	0.130	0.000	2.000	1	0.9520	-21.000	220.0	1	1.100	0.900;
    394	1	2.620	0.730	0.000	2.000	1	0.9510	-21.000	220.0	1	1.100	0.900;
    395	1	0.000	0.000	0.000	2.000	1	0.0000	4.000	220.0	1	1.100	0.900;
    398	1	0.000	0.000	0.000	2.000	1	0.0000	2.000	220.0	1	1.100	0.900;
    399	1	0.000	0.000	0.000	4.000	1	0.0000	0.000	220.0	1	1.100	0.900;
    401	1	0.000	0.000	0.000	2.000	1	1.0730	-15.000	220.0	1	1.100	0.900;
    402	1	0.000	0.000	0.000	4.000	1	1.0330	-28.000	220.0	1	1.100	0.900;
    403	1	0.000	0.000	0.000	6.000	1	1.0080	-39.000	220.0	1	1.100	0.900;
    404	1	0.000	0.000	0.000	6.000	1	0.0000	38.000	220.0	1	1.100	0.900;
    405	1	0.000	0.000	0.000	6.000	1	1.0140	-38.000	220.0	1	1.100	0.900;
    407	1	0.000	0.000	0.000	6.000	1	0.0000	0.000	220.0	1	1.100	0.900;
    408	1	0.000	0.000	0.000	6.000	1	1.0090	7.000	220.0	1	1.100	0.900;
    409	1	0.000	0.000	0.000	6.000	1	1.0150	-38.000	220.0	1	1.100	0.900;
    410	1	0.000	0.000	0.000	6.000	1	1.0210	-38.000	220.0	1	1.100	0.900;
    411	1	0.000	0.000	0.000	6.000	1	0.0000	0.000	220.0	1	1.100	0.900;
    412	1	0.000	0.000	0.000	4.000	1	0.0000	0.000	220.0	1	1.100	0.900;
    413	1	0.000	0.000	0.000	6.000	1	1.0150	-38.000	220.0	1	1.100	0.900;
    414	1	0.000	0.000	0.000	6.000	1	0.0000	8.000	220.0	1	1.100	0.900;
    415	1	0.000	0.000	0.000	2.000	1	0.0000	0.000	220.0	1	1.100	0.900;
    421	1	0.000	0.000	0.000	6.000	1	1.0050	-39.000	220.0	1	1.100	0.900;
    424	1	0.000	0.000	0.000	6.000	1	1.0130	-38.000	220.0	1	1.100	0.900;
    425	1	0.000	0.000	0.000	6.000	1	1.0330	-36.000	220.0	1	1.100	0.900;
    426	1	0.000	0.000	0.000	6.000	1	0.0000	1.000	220.0	1	1.100	0.900;
    427	1	0.000	0.000	0.000	4.000	1	0.0000	0.000	220.0	1	1.100	0.900;
    430	1	0.800	0.280	0.000	6.000	1	0.0000	8.000	220.0	1	1.100	0.900;
    434	1	0.000	0.000	0.000	4.000	1	0.0000	0.000	220.0	1	1.100	0.900;
    440	1	0.000	0.000	0.000	6.000	1	0.0000	38.000	220.0	1	1.100	0.900;
    446	1	0.000	0.000	0.000	6.000	1	1.0160	-36.000	220.0	1	1.100	0.900;
    449	1	0.000	0.000	0.000	2.000	1	0.0000	14.000	220.0	1	1.100	0.900;
    450	1	0.000	0.000	0.000	2.000	1	0.0000	16.000	220.0	1	1.100	0.900;
    451	1	0.000	0.000	0.000	2.000	1	1.0590	8.000	220.0	1	1.100	0.900;
    452	1	0.000	0.000	0.000	2.000	1	1.0470	-20.000	220.0	1	1.100	0.900;
    453	1	0.000	0.000	0.000	3.000	1	0.0000	0.000	220.0	1	1.100	0.900;
    454	1	0.000	0.000	0.000	3.000	1	0.9550	-33.000	220.0	1	1.100	0.900;
    456	1	0.000	0.000	0.000	3.000	1	1.0690	-22.000	220.0	1	1.100	0.900;
    457	1	0.000	0.000	0.000	3.000	1	1.0590	4.000	220.0	1	1.100	0.900;
    461	1	0.000	0.000	0.000	6.000	1	0.0000	-34.000	220.0	1	1.100	0.900;
    466	1	0.000	0.000	0.000	4.000	1	0.9970	-38.000	220.0	1	1.100	0.900;
    467	1	0.000	0.000	0.000	4.000	1	1.0150	-50.000	220.0	1	1.100	0.900;
    468	1	0.000	0.000	0.000	5.000	1	1.0640	-56.000	220.0	1	1.100	0.900;
    469	1	0.000	0.000	0.000	5.000	1	1.0980	-66.000	220.0	1	1.100	0.900;
    471	1	0.000	0.000	0.000	5.000	1	1.0320	1.000	220.0	1	1.100	0.900;
    472	1	0.000	0.000	0.000	5.000	1	1.0230	-44.000	220.0	1	1.100	0.900;
    475	1	0.000	0.000	0.000	4.000	1	0.9920	-31.000	220.0	1	1.100	0.900;
    478	1	0.000	0.000	0.000	3.000	1	0.9660	-32.000	220.0	1	1.100	0.900;
    479	1	0.000	0.000	0.000	8.000	1	1.0130	-74.000	220.0	1	1.100	0.900;
    480	1	0.000	0.000	0.000	3.000	1	1.0280	-27.000	220.0	1	1.100	0.900;
    482	1	0.000	0.000	0.000	3.000	1	0.0000	0.000	220.0	1	1.100	0.900;
    483	1	0.000	0.000	0.000	2.000	1	0.0000	15.000	220.0	1	1.100	0.900;
    484	1	0.000	0.000	0.000	2.000	1	1.0270	-25.000	220.0	1	1.100	0.900;
    485	1	0.000	0.000	0.000	4.000	1	0.0000	31.000	220.0	1	1.100	0.900;
...
];

%% Nombres de Barras
mpc.bus_name = {
    'CSI B1';
    'INV B1 2';
    'IBT F1 2';
    '5 INF B1';
    'REA VAU';
    'REA SAN';
    'ACY G3';
    'ACY G4';
    'SLO A 23';
    'BPAABC 2';
    'MRA A 23';
    'PBO AB 2';
    'VCE A 23';
    'SMIABC 2';
    'SICBRAS';
    'CEN AB 2';
    'BSP A 23';
    'PSA A 23';
    'VEL 23 H';
    'JLM AB 2';
    'LAM AB 2';
    'MPO AB 2';
    'TBO AB 2';
    'LUQ A 23';
    'LCO A 23';
    'FDM A 23';
    'PCA A 23';
    'PIR A 23';
    'VAL 23 H';
    'MBU AB 2';
    'SJA 23 H';
    'BTW CL 2';
    'ITG A 23';
    'CAE AB 2';
    'ELA A 23';
    'PAR A 23';
    'QUI A 23';
    'CAU AB 2';
    'GUA AB1';
    'BRO 23 H';
    'VTA AB 2';
    'LIM AB 2';
    'VHA AB 2';
    'YZU 23 H';
    'NAR A 23';
    'PBU A 23';
    'CAL A 23';
    'NAT A 23';
    'TRI A 23';
    'PPO A 23';
    'AYO A 23';
    'VIN A 23';
    'PIL A 23';
    'ENC A 23';
    'VAP A 23';
    'SPP A 23';
    'M1 INC 6';
    'VM2 A 23';
    'SES A 23';
    'SRO A 23';
    'HOR A 23';
    'YBY A 23';
    'CBV A 23';
    'PJC AB 2';
    'COV A 23';
    'FIL A 23';
    'CZA A 23';
    'CAM A 23';
    'LPA A 23';
    'CBO A 23';
    'ACY B 23';
    'SJB A 23';
    'APR AB 2';
    'CYO A 23';
    'MES A 23';
    'SPA A 23';
    'K30 AB 2';
    'PFO A 23';
    'IRY A 23';
    'CUR A 23';
    'CAP A 23';
    'HER A 23';
    'CDO A 23';
    'CZU A 23';
    'K15 A 23';
    'SPN A 23';
    'SLO B1 6';
    'BPA B1 6';
    'MRA B1 6';
    'CER BP 6';
    'PBO B1 6';
    'VCE B1 6';
    'SMI B1 6';
    'CEN B1 6';
    'PSA B1 6';
    'LAM B1 6';
    'INP A 66';
    'MPO B1 6';
    'TBO B1 6';
    'LCO BP 6';
    'FDM B1 6';
    'PCA B1 6';
    'PIR B1 6';
    'VAL 66 I';
    'MBU B1 6';
    'SJA 66 I';
    'BTW B1 6';
    'ITG BP 6';
    'CAE BP 6';
    'ELA B1 6';
    'PAR B1 6';
    'QUI B1 6';
    'CAU B1 6';
    'GUA B1 6';
    'BRO 66 I';
    'VTA BP 6';
    'GHN B1 6';
    'LIM B1 6';
    'VHA B1 6';
    'NAR BP 6';
    'PBU B1 6';
    'TRI B1 6';
    'PPO B1 6';
    'VIN B1 6';
    'PIL B1 6';
    'ENC B1 6';
    'VAP B1 6';
    'SPP B1 6';
    'VM2 B1 6';
    'RO B1';
    'HOR B1 6';
    'YBY B1 6';
    'CBV B1 6';
    'PJC B1 6';
    'CON B1 6';
    'COV BP 6';
    'FIL B1 6';
    'VIL BP 6';
    'CZA B1 6';
    'CAM B1 6';
    'LPA B2 6';
    'CBO B1 6';
    'ACY B3 6';
    'APR B1 6';
    'MES B1 6';
    'K30 BP 6';
    'PFO B1 6';
    'IRY B1 6';
    'CUR B1 6';
    'CIL 66 I';
    'WMA A 66';
    'HER BP 6';
    'K15 TA 6';
    'SPN B1 6';
    'ACY B2 2';
    'COV B1 2';
    'SLO B1 2';
    'GUA B3 2';
    'LAM B1 2';
    'ALT B1 2';
    'PBO B1 2';
    'LIM B1 2';
    'SAN TA 2';
    'IM RE 11';
    'BSP B1 2';
    'PSA B2 2';
    'VEL 220';
    'JLM B1 2';
    'LUQ TA 2';
    'PCA AB 2';
    'PIR B1 2';
    'VAL 220';
    'VAQ TA 2';
    'ADM 220';
    'ELA TA 2';
    'BRO 220';
    'VHA B1 2';
    'YZU 220';
    'SRI 220';
    'PBU TA 2';
    'CAL B1 2';
    'NAT TA 2';
    'TRI B1 2';
    'AYO B1 2';
    'VIN B1 2';
    'VAP TA 2';
    'SES TA 2';
    'SRO TA 2';
    'HOR B1 2';
    'VM1 B1 2';
    'CCO B1 2';
    'CBA B1 2';
    'PPE B1 2';
    'CAM B2 2';
    'LPA B1 2';
    'CBO TA 2';
    'SJB TA 2';
    'MD B1 22';
    'IRY B1 2';
    'CYO A 22';
    'SPA B1 2';
    'K30 B1 2';
    'PFO TA 2';
    'CAT B1 2';
    'JEP B1 2';
    'CAP TA 2';
    'CDO TA 2';
    'CZU TA 2';
    'COPEL  J';
    'BO F1';
    'BO F2';
    'AM F1';
    'AM F2';
    'LA F1';
    'SA F1';
    'SA F2';
    'MO F1';
    'AU F1';
    'CA F1';
    'PA F1';
    'M2 F1 22';
    'IPU10G';
    'PMA B1 2';
    'CAL B1 1';
    'YAC19G';
    'IPU B1 5';
    'MD B1 50';
    'FOZ B1 5';
    'FOZ B2 5';
    'VAL 500';
    'VHA B1 5';
    'YZU 500';
    'AYO B1 5';
    'YAC B1 5';
    'BPAABC 2';
    'DES A 23';
    'ALT A 23';
    'VAU B 23';
    'REA BMO';
    'REA PCA';
    'PAR B 23';
    'LIM AB 2';
    'NAR B 23';
    'VM2 B 23';
    'SRO 23 H';
    'VRE AB 2';
    'VIL A 23';
    'VIL B 23';
    'ACY C 23';
    'CAT2 A 2';
    'CUR B 23';
    'FIC INE';
    'BPA FIC';
    'FIC-CER';
    'nPS F1 6';
    'nBS F1 6';
    'nCP F1 6';
    'FIC-INP';
    'BTW F1 I';
    'nBC F1 6';
    'FIC ITG';
    'QUI B1 F';
    'VAP-CAU';
    'CAI 66 I';
    'nGI F1 6';
    'FIC ACE';
    'TRI-ENC';
    'nTE F1 6';
    'VM2 B1 6';
    'CLY    I';
    'IC CAM-E';
    'CHO 66 I';
    'ACY-APR';
    'ACY FIC';
    'LAM-FIC2';
    'MCE AB 2';
    'GUA B2 2';
    'FIC2-FIC';
    'FIC3-FIC';
    'FIC3-FIC';
    'SAN-FIC1';
    'FIC1-LAM';
    'GUA-FIC';
    'GUA-FIC1';
    'REA VEL';
    'LAM-FIC2';
    'nLT F1 6';
    'FIC2-FIC';
    'VEL F1 K';
    'PBO-VAU';
    'PBO-VAU';
    'PBO-BMO';
    'PBO-VAU';
    'PBO-BMO';
    'PBO-BMO';
    'PBO-VAU';
    'VHA- PBO';
    'PBO-PCA';
    'PBO-PCA';
    'VAL F5 K';
    'VAL F6 K';
    'RO F1';
    'YZU F1 2';
    'YZU F2 2';
    'VM2 B1 2';
    'CAM F1 2';
    'CAM F2 2';
    'MD F5 2';
    'MD F1 2';
    'MD F2 2';
    'MD F3 2';
    'MD F4 2';
    'MD F6 2';
    'PIH F1 2';
    'PIH F2 2';
    'REA SLO';
    'REA SLO';
    'REA SLO';
    'REA PBO';
    'REA PBO';
    'ALY 220';
    'REA LAM';
    'REA LAM';
    'REA VEL';
    'MD HER2';
    'SECCIO 1';
    'REA LAV';
    'REA LAV';
    'REA LUQ';
    'REA LUQ';
    'REA LUQ';
    'CA F2';
    'REA PCA';
    'REA YZU';
    'PA F1';
    'REA APR';
    'REA APR';
    'REA CAP';
    'REA CAP';
    'REA CZU';
    'IC F1';
    'REA CZU';
    'VAL F1 K';
    'VAL F2 K';
    'VAL F3 K';
    'VAL F4 K';
    'REA VAL';
    'MD-VHA F';
    'AYO-VHA';
    'REP A 23';
    'VAU B2 2';
    'SAN B 23';
    'GDI A 23';
    'LAV A 23';
    'BMO AB 2';
    'BCP B1 2';
    'CAU AB 2';
    'CNU AB 2';
    'SRI 23 H';
    'IRO A 23';
    'FRA AB 2';
    'CCO AB 2';
    'CBA 23 H';
    'PPE A 23';
    'ACY A 23';
    'SIG 23 H';
    'PFO B 23';
    'JEP A 23';
    'ABA A 23';
    'DES B1 6';
    'REP B1 6';
    'VAU B1 6';
    'GDI B1 6';
    'GHN 23 H';
    'ACE B1 6';
    'VMC    I';
    'CON B 23';
    'FER 66 I';
    'VAU B1 2';
    'LAV TA 2';
    'APR 220';
    'CYO A 22';
    'SIG TA 2';
    'SGA A 23';
    'SICBRAS';
    'BCP B1 6';
    'CNU B1 6';
    'FRA B1 6';
    'CCO B1 6';
    'VRE B1 6';
    'PPE B1 6';
    'LPA B3 6';
    'MCE B1 6';
    'BTW F2 I';
    'BMO B1 2';
    'VAQ A 23';
    'PIH AB 2';
    'ALT B1 6';
    'BMO B1 6';
    'PIH B1 6';
    'SLO STAT';
    'LT F1';
    'CMY B1 2';
    'IRO TA 2';
    'HOR comp';
    'VRE B1 2';
    'SICBRAS';
    'SGA B1 2';
    'PIH B1 2';
    'ABA TA 2';
    'REA SAN';
    'ACY G2';
    'ACY G1';
    'ABA A 2';
    'U F1';
    'LT F1';
    'DES A 23';
    'SICBRAS';
};

%% Datos de Generadores
%  bus Pg Qg Qmax Qmin Vg mBase status Pmax Pmin Pc1 Pc2 Qc1min Qc1max Qc2min Qc2max ramp_agc ramp_10 ramp_30 ramp_q apf
mpc.gen = [
    48	0.000	-9900.000	0.000	9900.000	0.0000	100.0	1	9999.000	0.000	0	0	0	0	0	0	0	0	0	0	0;
    87	0.000	0.000	99.000	0.000	0.0000	100.0	1	9999.000	0.000	0	0	0	0	0	0	0	0	0	0	0;
    183	0.000	0.000	0.000	35.000	0.0000	100.0	1	9999.000	0.000	0	0	0	0	0	0	0	0	0	0	0;
    184	0.000	0.000	0.000	35.000	0.0000	100.0	1	9999.000	0.000	0	0	0	0	0	0	0	0	0	0	0;
    700	700.700	-3600.000	0.000	3600.000	1.0170	100.0	1	9999.000	0.000	0	0	0	0	0	0	0	0	0	0	0;
    790	0.000	0.000	0.000	1780.000	0.0000	100.0	1	9999.000	0.000	0	0	0	0	0	0	0	0	0	0	0;
    1483	4.000	0.000	0.000	0.000	0.0000	100.0	1	9999.000	0.000	0	0	0	0	0	0	0	0	0	0	0;
    1484	4.000	0.000	0.000	0.000	0.0000	100.0	1	9999.000	0.000	0	0	0	0	0	0	0	0	0	0	0;
    1485	4.000	0.000	0.000	0.000	0.0000	100.0	1	9999.000	0.000	0	0	0	0	0	0	0	0	0	0	0;
    1486	0.400	0.000	0.000	0.000	0.0000	100.0	1	9999.000	0.000	0	0	0	0	0	0	0	0	0	0	0;
    1487	0.400	0.000	0.000	0.000	0.0000	100.0	1	9999.000	0.000	0	0	0	0	0	0	0	0	0	0	0;
    1488	4.000	0.000	0.000	0.000	0.0000	100.0	1	9999.000	0.000	0	0	0	0	0	0	0	0	0	0	0;
    182	0.000	0.000	0.000	0.000	0.0000	100.0	1	9999.000	0.000	0	0	0	0	0	0	0	0	0	0	0;
    181	0.000	0.000	0.000	0.000	0.0000	100.0	1	9999.000	0.000	0	0	0	0	0	0	0	0	0	0	0;
    4	9.000	2297.000	41.000	0.000	0.0000	100.0	1	9999.000	0.000	0	0	0	0	0	0	0	0	0	0	0;
    5	0.000	0.000	20.000	1.000	0.0000	100.0	1	9999.000	0.000	0	0	0	0	0	0	0	0	0	0	0;
    1	0.000	0.000	60.000	0.000	0.0000	100.0	1	9999.000	0.000	0	0	0	0	0	0	0	0	0	0	0;
    2	9.000	1204.000	30.000	0.000	0.0000	100.0	1	9999.000	0.000	0	0	0	0	0	0	0	0	0	0	0;
    3	9.000	209.000	30.000	0.000	0.0000	100.0	1	9999.000	0.000	0	0	0	0	0	0	0	0	0	0	0;
];

%% Datos de Ramas
%  fbus tbus r x b rateA rateB rateC ratio angle status angmin angmax
mpc.branch = [
    85	87	85.00000	0.00000	15.00000	9999.0	9999.0	9999.0	1.0000	0.00	0	-360.0	360.0;
    297	1597	1597.00000	0.00000	4.00000	80.0	80.0	80.0	1.0000	0.00	0	-360.0	360.0;
    297	1599	1599.00000	0.00000	4.00000	80.0	80.0	80.0	1.0000	0.00	0	-360.0	360.0;
    301	303	3.69400	7.21600	0.11700	95.0	95.0	95.0	1.0000	0.00	0	-360.0	360.0;
    5411	2210	5411.00000	0.00000	6.00000	80.0	80.0	80.0	1.0000	0.00	0	-360.0	360.0;
    301	323	0.73900	4.24200	3.54200	100.0	100.0	100.0	1.0000	0.00	0	-360.0	360.0;
    301	331	9.41100	19.92300	0.28200	40.0	40.0	40.0	1.0000	0.00	0	-360.0	360.0;
    301	1303	3.01400	6.82600	0.11600	72.0	72.0	72.0	1.0000	0.00	0	-360.0	360.0;
    303	1326	1.23100	2.14200	0.03500	50.0	50.0	50.0	1.0000	0.00	0	-360.0	360.0;
    303	3503	0.34600	0.67900	0.01100	100.0	100.0	100.0	1.0000	0.00	0	-360.0	360.0;
    305	341	3.25200	5.11700	0.10300	95.0	95.0	95.0	1.0000	0.00	0	-360.0	360.0;
    306	304	0.85900	4.93200	4.11900	100.0	100.0	100.0	1.0000	0.00	0	-360.0	360.0;
    306	307	0.92900	1.61700	0.02600	50.0	50.0	50.0	1.0000	0.00	0	-360.0	360.0;
    306	327	0.33100	1.89900	1.58600	100.0	100.0	100.0	1.0000	0.00	0	-360.0	360.0;
    306	1300	1.85800	3.23300	0.05200	100.0	100.0	100.0	1.0000	0.00	0	-360.0	360.0;
    308	311	0.73900	1.72300	0.93200	60.0	60.0	60.0	1.0000	0.00	0	-360.0	360.0;
    308	324	0.16700	0.64400	0.49900	100.0	100.0	100.0	1.0000	0.00	0	-360.0	360.0;
    308	1306	0.39700	0.92500	0.50100	100.0	100.0	100.0	1.0000	0.00	0	-360.0	360.0;
    308	1308	0.23400	0.54450	0.29500	60.0	60.0	60.0	1.0000	0.00	0	-360.0	360.0;
    5410	2210	5410.00000	0.00000	6.00000	80.0	80.0	80.0	1.0000	0.00	0	-360.0	360.0;
    311	2311	0.17200	0.98600	0.82400	100.0	100.0	100.0	1.0000	0.00	0	-360.0	360.0;
    313	1313	0.77600	1.75700	0.03000	72.0	72.0	72.0	1.0000	0.00	0	-360.0	360.0;
    313	2311	0.35500	1.36800	1.06000	60.0	60.0	60.0	1.0000	0.00	0	-360.0	360.0;
    316	1416	0.13700	0.53000	0.41100	100.0	100.0	100.0	1.0000	0.00	0	-360.0	360.0;
    316	2308	2.52600	5.72100	0.09700	60.0	60.0	60.0	1.0000	0.00	0	-360.0	360.0;
    319	1319	8.95900	16.26400	0.24300	40.0	40.0	40.0	1.0000	0.00	0	-360.0	360.0;
    320	1416	1.30500	2.95500	0.05000	100.0	100.0	100.0	1.0000	0.00	0	-360.0	360.0;
    326	328	3.65000	8.72400	0.13200	72.0	72.0	72.0	1.0000	0.00	0	-360.0	360.0;
    331	325	6.25400	12.62600	0.19100	95.0	95.0	95.0	1.0000	0.00	0	-360.0	360.0;
    331	1331	3.67000	7.78000	0.11000	40.0	40.0	40.0	1.0000	0.00	0	-360.0	360.0;
    331	1343	4.12900	6.57000	0.16300	95.0	95.0	95.0	1.0000	0.00	0	-360.0	360.0;
    333	334	6.09000	11.70100	0.30500	72.0	72.0	72.0	1.0000	0.00	0	-360.0	360.0;
    335	325	6.16700	13.05600	0.18500	40.0	40.0	40.0	1.0000	0.00	0	-360.0	360.0;
    337	335	19.82400	41.96600	0.59400	40.0	40.0	40.0	1.0000	0.00	0	-360.0	360.0;
    337	1337	4.60100	9.74000	0.13800	40.0	40.0	40.0	1.0000	0.00	0	-360.0	360.0;
    339	331	7.39300	11.76400	0.29200	95.0	95.0	95.0	1.0000	0.00	0	-360.0	360.0;
    339	1343	3.26400	5.19400	0.12900	95.0	95.0	95.0	1.0000	0.00	0	-360.0	360.0;
    340	341	11.69700	21.47600	0.56100	100.0	100.0	100.0	1.0000	0.00	0	-360.0	360.0;
    341	1341	0.05300	0.08300	0.00200	40.0	40.0	40.0	1.0000	0.00	0	-360.0	360.0;
    343	1343	0.79400	1.43500	0.02100	40.0	40.0	40.0	1.0000	0.00	0	-360.0	360.0;
    344	1345	4.74600	8.58200	0.12800	40.0	40.0	40.0	1.0000	0.00	0	-360.0	360.0;
    350	351	22.91800	46.26300	0.70100	95.0	95.0	95.0	1.0000	0.00	0	-360.0	360.0;
    354	355	19.03100	36.56500	0.95400	40.0	40.0	40.0	1.0000	0.00	0	-360.0	360.0;
    354	1360	11.51400	21.14000	0.55200	40.0	40.0	40.0	1.0000	0.00	0	-360.0	360.0;
    357	358	26.17500	49.44400	0.67700	40.0	40.0	40.0	1.0000	0.00	0	-360.0	360.0;
    361	1338	1.06800	1.92500	0.02800	40.0	40.0	40.0	1.0000	0.00	0	-360.0	360.0;
    362	380	21.65400	39.47000	0.58100	40.0	40.0	40.0	1.0000	0.00	0	-360.0	360.0;
    367	399	26.59000	48.47000	0.71300	40.0	40.0	40.0	1.0000	0.00	0	-360.0	360.0;
    368	369	28.79900	52.49600	0.77200	40.0	40.0	40.0	1.0000	0.00	0	-360.0	360.0;
    368	372	21.65200	39.46800	0.58000	40.0	40.0	40.0	1.0000	0.00	0	-360.0	360.0;
    369	370	19.43600	35.42900	0.52100	40.0	40.0	40.0	1.0000	0.00	0	-360.0	360.0;
    373	375	16.55300	35.04200	0.49600	60.0	60.0	60.0	1.0000	0.00	0	-360.0	360.0;
    374	386	25.94900	46.97100	0.68300	40.0	40.0	40.0	1.0000	0.00	0	-360.0	360.0;
    375	1375	0.36200	0.76700	0.01100	60.0	60.0	60.0	1.0000	0.00	0	-360.0	360.0;
    379	2379	8.15100	14.96600	0.39100	72.0	72.0	72.0	1.0000	0.00	0	-360.0	360.0;
    384	389	1.05800	2.46600	1.33400	77.0	77.0	77.0	1.0000	0.00	0	-360.0	360.0;
    384	3403	0.35700	2.04700	1.70900	100.0	100.0	100.0	1.0000	0.00	0	-360.0	360.0;
    384	3403	0.35700	2.04700	1.70900	100.0	100.0	100.0	1.0000	0.00	0	-360.0	360.0;
    388	393	0.55100	0.01000	0.01500	40.0	40.0	40.0	1.0000	0.00	0	-360.0	360.0;
    389	2304	2.11600	4.93200	2.66900	100.0	100.0	100.0	1.0000	0.00	0	-360.0	360.0;
    390	319	14.43500	26.31200	0.38700	40.0	40.0	40.0	1.0000	0.00	0	-360.0	360.0;
    392	390	44.30900	80.76900	1.18800	40.0	40.0	40.0	1.0000	0.00	0	-360.0	360.0;
    393	394	0.62800	1.14000	0.01700	40.0	40.0	40.0	1.0000	0.00	0	-360.0	360.0;
    398	394	6.86300	12.45400	0.18300	40.0	40.0	40.0	1.0000	0.00	0	-360.0	360.0;
    5518	1209	5518.00000	0.00000	6.00000	120.0	120.0	120.0	1.0000	0.00	0	-360.0	360.0;
    401	488	0.21500	1.80800	5.76700	550.0	550.0	550.0	1.0000	0.00	0	-360.0	360.0;
    401	488	0.21500	1.80800	5.76700	550.0	550.0	550.0	1.0000	0.00	0	-360.0	360.0;
    401	488	0.60600	2.49700	4.11300	229.0	229.0	229.0	1.0000	0.00	0	-360.0	360.0;
    401	488	0.60600	2.49700	4.11300	229.0	229.0	229.0	1.0000	0.00	0	-360.0	360.0;
    401	489	0.06100	0.43000	1.89600	550.0	550.0	550.0	1.0000	0.00	0	-360.0	360.0;
    401	489	0.06100	0.43000	1.89600	550.0	550.0	550.0	1.0000	0.00	0	-360.0	360.0;
    401	499	401.00000	0.00000	2.00000	80.0	80.0	80.0	1.0000	0.00	0	-360.0	360.0;
    402	475	0.80630	3.41700	5.32340	240.0	240.0	240.0	1.0000	0.00	0	-360.0	360.0;
    402	485	0.99200	4.06490	6.44300	200.0	200.0	200.0	1.0000	0.00	0	-360.0	360.0;
    402	1434	0.71000	3.41200	5.47400	305.0	305.0	305.0	1.0000	0.00	0	-360.0	360.0;
    402	1600	0.83500	3.86200	6.28600	305.0	305.0	305.0	1.0000	0.00	0	-360.0	360.0;
    402	1603	0.76200	3.52700	5.73900	305.0	305.0	305.0	1.0000	0.00	0	-360.0	360.0;
    403	421	0.12000	0.55500	0.90300	350.0	350.0	350.0	1.0000	0.00	0	-360.0	360.0;
    403	493	0.17300	0.83200	1.33500	305.0	305.0	305.0	1.0000	0.00	0	-360.0	360.0;
    404	410	0.18500	1.29600	2.18300	250.0	250.0	250.0	1.0000	0.00	0	-360.0	360.0;
    404	425	0.37100	1.71700	2.79500	305.0	305.0	305.0	1.0000	0.00	0	-360.0	360.0;
    404	430	0.16140	0.66670	1.09700	165.0	165.0	165.0	1.0000	0.00	0	-360.0	360.0;
    404	440	0.66100	3.38000	5.46700	350.0	350.0	350.0	1.0000	0.00	0	-360.0	360.0;
    404	461	0.99600	5.81900	9.79600	238.0	238.0	238.0	1.0000	0.00	0	-360.0	360.0;
    404	1412	0.18500	1.29600	2.18300	250.0	250.0	250.0	1.0000	0.00	0	-360.0	360.0;
    404	2418	0.26410	1.09200	1.79600	350.0	350.0	350.0	1.0000	0.00	0	-360.0	360.0;
    405	1415	0.06000	0.28500	0.58900	250.0	250.0	250.0	1.0000	0.00	0	-360.0	360.0;
    407	409	0.52400	2.16600	3.54400	230.0	230.0	230.0	1.0000	0.00	0	-360.0	360.0;
    408	446	0.20100	1.06800	1.76700	400.0	400.0	400.0	1.0000	0.00	0	-360.0	360.0;
    408	446	0.20100	1.06800	1.76700	400.0	400.0	400.0	1.0000	0.00	0	-360.0	360.0;
    408	446	0.20100	1.06800	1.76700	400.0	400.0	400.0	1.0000	0.00	0	-360.0	360.0;
    408	1423	0.01000	0.06700	6.74700	350.0	350.0	350.0	1.0000	0.00	0	-360.0	360.0;
    408	1425	0.01000	0.06000	6.74700	350.0	350.0	350.0	1.0000	0.00	0	-360.0	360.0;
    408	1433	0.10200	0.54200	0.89700	400.0	400.0	400.0	1.0000	0.00	0	-360.0	360.0;
    409	421	0.32700	1.51100	2.46000	350.0	350.0	350.0	1.0000	0.00	0	-360.0	360.0;
    409	446	0.28700	1.54400	2.62100	350.0	350.0	350.0	1.0000	0.00	0	-360.0	360.0;
    409	1509	0.00100	0.00700	0.72800	250.0	250.0	250.0	1.0000	0.00	0	-360.0	360.0;
    409	4444	0.14100	0.75900	1.28800	350.0	350.0	350.0	1.0000	0.00	0	-360.0	360.0;
    409	4485	0.45800	1.89100	3.09400	230.0	230.0	230.0	1.0000	0.00	0	-360.0	360.0;
    410	1418	0.04200	0.29100	0.49000	250.0	250.0	250.0	1.0000	0.00	0	-360.0	360.0;
    412	467	0.98450	4.09200	6.38400	200.0	200.0	200.0	1.0000	0.00	0	-360.0	360.0;
    413	446	0.38700	2.08600	3.45600	450.0	450.0	450.0	1.0000	0.00	0	-360.0	360.0;
    413	446	0.38700	2.08600	3.45600	450.0	450.0	450.0	1.0000	0.00	0	-360.0	360.0;
    413	1406	0.00600	0.04300	4.69600	250.0	250.0	250.0	1.0000	0.00	0	-360.0	360.0;
    413	1408	0.00600	0.04300	4.69000	250.0	250.0	250.0	1.0000	0.00	0	-360.0	360.0;
    415	402	2.56000	10.39700	16.42300	229.0	229.0	229.0	1.0000	0.00	0	-360.0	360.0;
    426	1434	0.03600	0.30100	0.96200	550.0	550.0	550.0	1.0000	0.00	0	-360.0	360.0;
    426	1435	0.03600	0.30100	0.96200	550.0	550.0	550.0	1.0000	0.00	0	-360.0	360.0;
    426	1600	0.03600	0.30100	0.96200	550.0	550.0	550.0	1.0000	0.00	0	-360.0	360.0;
    426	1601	0.03600	0.30100	0.96200	550.0	550.0	550.0	1.0000	0.00	0	-360.0	360.0;
    426	1603	0.03600	0.30100	0.96200	550.0	550.0	550.0	1.0000	0.00	0	-360.0	360.0;
    426	1604	0.03600	0.30100	0.96200	550.0	550.0	550.0	1.0000	0.00	0	-360.0	360.0;
    427	2485	1.42200	5.87300	9.60900	248.0	248.0	248.0	1.0000	0.00	0	-360.0	360.0;
    434	493	0.77000	3.69800	5.93200	305.0	305.0	305.0	1.0000	0.00	0	-360.0	360.0;
    446	1431	0.20100	1.06800	1.76700	400.0	400.0	400.0	1.0000	0.00	0	-360.0	360.0;
    449	488	0.19800	1.19200	3.87900	550.0	550.0	550.0	1.0000	0.00	0	-360.0	360.0;
    449	488	0.19800	1.19200	3.87900	550.0	550.0	550.0	1.0000	0.00	0	-360.0	360.0;
    449	1449	0.09900	0.59600	1.94000	550.0	550.0	550.0	1.0000	0.00	0	-360.0	360.0;
    449	1450	0.09900	0.59600	1.94000	550.0	550.0	550.0	1.0000	0.00	0	-360.0	360.0;
    451	489	0.55400	3.32300	5.27000	180.0	180.0	180.0	1.0000	0.00	0	-360.0	360.0;
    452	451	0.92300	5.54100	8.78900	180.0	180.0	180.0	1.0000	0.00	0	-360.0	360.0;
    452	453	1.15900	4.82800	7.50300	183.0	183.0	183.0	1.0000	0.00	0	-360.0	360.0;
    4495	1491	0.02400	0.14200	0.23700	400.0	400.0	400.0	1.0000	0.00	0	-360.0	360.0;
    454	1478	0.07700	0.32700	0.50800	180.0	180.0	180.0	1.0000	0.00	0	-360.0	360.0;
    456	457	2.43700	10.32700	16.08800	180.0	180.0	180.0	1.0000	0.00	0	-360.0	360.0;
    456	480	1.18000	5.60400	9.13000	350.0	350.0	350.0	1.0000	0.00	0	-360.0	360.0;
    466	412	0.98450	4.09200	6.38400	250.0	250.0	250.0	1.0000	0.00	0	-360.0	360.0;
    466	4466	1.03800	4.31300	6.73000	250.0	250.0	250.0	1.0000	0.00	0	-360.0	360.0;
    467	468	1.54200	6.40800	9.99800	200.0	200.0	200.0	1.0000	0.00	0	-360.0	360.0;
    468	1469	3.58100	15.17800	23.64500	180.0	180.0	180.0	1.0000	0.00	0	-360.0	360.0;
    468	4472	0.63000	3.39400	5.76100	180.0	180.0	180.0	1.0000	0.00	0	-360.0	360.0;
    469	1469	0.10100	0.42750	0.66500	180.0	180.0	180.0	1.0000	0.00	0	-360.0	360.0;
    471	468	3.30600	14.01000	21.82600	183.0	183.0	183.0	1.0000	0.00	0	-360.0	360.0;
    472	471	1.65200	8.45000	13.66800	300.0	300.0	300.0	1.0000	0.00	0	-360.0	360.0;
    475	4497	1.40500	5.95600	9.27900	250.0	250.0	250.0	1.0000	0.00	0	-360.0	360.0;
    480	487	1.29000	5.47200	8.49600	180.0	180.0	180.0	1.0000	0.00	0	-360.0	360.0;
    480	1480	0.94700	4.01700	6.23600	180.0	180.0	180.0	1.0000	0.00	0	-360.0	360.0;
    482	404	2.24900	13.13500	22.11100	238.0	238.0	238.0	1.0000	0.00	0	-360.0	360.0;
    483	401	0.03100	0.29900	0.64300	667.0	667.0	667.0	1.0000	0.00	0	-360.0	360.0;
    483	401	0.03100	0.29900	0.64300	667.0	667.0	667.0	1.0000	0.00	0	-360.0	360.0;
    483	484	1.42500	5.88500	9.63000	400.0	400.0	400.0	1.0000	0.00	0	-360.0	360.0;
    483	1490	0.30300	1.24900	2.04500	400.0	400.0	400.0	1.0000	0.00	0	-360.0	360.0;
    484	427	1.39200	5.74800	9.40500	248.0	248.0	248.0	1.0000	0.00	0	-360.0	360.0;
    484	491	1.49300	8.04200	13.64800	300.0	300.0	300.0	1.0000	0.00	0	-360.0	360.0;
    484	492	1.48700	7.60500	12.30100	300.0	300.0	300.0	1.0000	0.00	0	-360.0	360.0;
    484	2485	2.81400	11.62000	19.01400	248.0	248.0	248.0	1.0000	0.00	0	-360.0	360.0;
    485	466	0.96400	3.94920	6.25900	250.0	250.0	250.0	1.0000	0.00	0	-360.0	360.0;
    487	456	0.75600	3.56900	6.00700	375.0	375.0	375.0	1.0000	0.00	0	-360.0	360.0;
    487	456	0.75600	3.56900	6.00700	375.0	375.0	375.0	1.0000	0.00	0	-360.0	360.0;
    487	482	0.45500	2.66000	4.47800	238.0	238.0	238.0	1.0000	0.00	0	-360.0	360.0;
    487	2487	0.23500	1.37200	2.30900	238.0	238.0	238.0	1.0000	0.00	0	-360.0	360.0;
    488	415	0.73900	3.00100	4.74000	229.0	229.0	229.0	1.0000	0.00	0	-360.0	360.0;
    488	450	0.74400	3.80300	6.15100	350.0	350.0	350.0	1.0000	0.00	0	-360.0	360.0;
    488	496	0.99600	5.85100	9.73300	300.0	300.0	300.0	1.0000	0.00	0	-360.0	360.0;
    488	497	1.61800	9.50600	15.81500	300.0	300.0	300.0	1.0000	0.00	0	-360.0	360.0;
    489	2484	0.02500	0.20700	16.56500	350.0	350.0	350.0	1.0000	0.00	0	-360.0	360.0;
    491	4491	0.68600	3.69300	6.26700	300.0	300.0	300.0	1.0000	0.00	0	-360.0	360.0;
    492	472	2.47900	12.67500	20.50200	300.0	300.0	300.0	1.0000	0.00	0	-360.0	360.0;
    496	402	1.26500	7.43200	12.36400	300.0	300.0	300.0	1.0000	0.00	0	-360.0	360.0;
    497	402	0.64000	3.75900	6.25400	300.0	300.0	300.0	1.0000	0.00	0	-360.0	360.0;
    730	430	0.10090	0.41670	0.68500	165.0	165.0	165.0	1.0000	0.00	0	-360.0	360.0;
    800	801	0.00100	0.02300	2.22000	2078.0	2078.0	2078.0	1.0000	0.00	0	-360.0	360.0;
    800	801	0.00100	0.02300	2.24000	2078.0	2078.0	2078.0	1.0000	0.00	0	-360.0	360.0;
    800	801	0.00100	0.02200	2.28000	2078.0	2078.0	2078.0	1.0000	0.00	0	-360.0	360.0;
    800	801	0.00100	0.02200	2.30000	2078.0	2078.0	2078.0	1.0000	0.00	0	-360.0	360.0;
    801	804	0.00600	0.10000	10.40000	2078.0	2078.0	2078.0	1.0000	0.00	0	-360.0	360.0;
    801	804	0.00600	0.09800	10.21000	2078.0	2078.0	2078.0	1.0000	0.00	0	-360.0	360.0;
    804	801	0.00600	0.10000	10.40000	2078.0	2078.0	2078.0	1.0000	0.00	0	-360.0	360.0;
    804	801	0.00600	0.09800	10.21000	2078.0	2078.0	2078.0	1.0000	0.00	0	-360.0	360.0;
    826	1856	0.10900	1.09900	111.24000	2215.0	2215.0	2215.0	1.0000	0.00	0	-360.0	360.0;
    849	801	0.05300	0.57100	59.84000	2215.0	2215.0	2215.0	1.0000	0.00	0	-360.0	360.0;
    849	801	0.05300	0.57100	59.84000	2215.0	2215.0	2215.0	1.0000	0.00	0	-360.0	360.0;
    856	826	0.24300	2.45500	248.39000	2215.0	2215.0	2215.0	1.0000	0.00	0	-360.0	360.0;
    856	890	0.01000	0.17900	17.46400	2000.0	2000.0	2000.0	1.0000	0.00	0	-360.0	360.0;
    856	890	0.01000	0.18000	17.46400	2000.0	2000.0	2000.0	1.0000	0.00	0	-360.0	360.0;
    1224	224	1224.00000	0.00000	6.00000	120.0	120.0	120.0	1.0000	0.00	0	-360.0	360.0;
    1300	1306	0.48100	0.83800	0.01400	100.0	100.0	100.0	1.0000	0.00	0	-360.0	360.0;
    1303	2309	0.22900	0.88300	0.68400	100.0	100.0	100.0	1.0000	0.00	0	-360.0	360.0;
    1305	305	1.73100	3.38200	0.05500	95.0	95.0	95.0	1.0000	0.00	0	-360.0	360.0;
    1305	339	0.54100	1.05700	0.01700	95.0	95.0	95.0	1.0000	0.00	0	-360.0	360.0;
    1308	1326	0.69900	1.21600	0.02000	60.0	60.0	60.0	1.0000	0.00	0	-360.0	360.0;
    1313	311	0.16200	0.62500	0.48400	100.0	100.0	100.0	1.0000	0.00	0	-360.0	360.0;
    1319	317	0.68900	1.25000	0.01900	40.0	40.0	40.0	1.0000	0.00	0	-360.0	360.0;
    1322	329	0.06900	0.39500	0.33000	100.0	100.0	100.0	1.0000	0.00	0	-360.0	360.0;
    1331	333	4.26400	9.02700	0.12800	40.0	40.0	40.0	1.0000	0.00	0	-360.0	360.0;
    1337	361	1.06800	1.92500	0.02800	40.0	40.0	40.0	1.0000	0.00	0	-360.0	360.0;
    1338	338	7.71400	16.33000	0.23100	40.0	40.0	40.0	1.0000	0.00	0	-360.0	360.0;
    1345	2345	0.45700	0.82600	0.01200	40.0	40.0	40.0	1.0000	0.00	0	-360.0	360.0;
    1345	3346	1.44300	2.61000	0.03900	40.0	40.0	40.0	1.0000	0.00	0	-360.0	360.0;
    1354	354	6.97000	15.78600	0.26700	60.0	60.0	60.0	1.0000	0.00	0	-360.0	360.0;
    1354	360	2.93500	6.64600	0.11200	60.0	60.0	60.0	1.0000	0.00	0	-360.0	360.0;
    1360	3370	2.37600	4.36200	0.11400	40.0	40.0	40.0	1.0000	0.00	0	-360.0	360.0;
    1378	360	0.17200	0.98600	0.82400	100.0	100.0	100.0	1.0000	0.00	0	-360.0	360.0;
    1378	378	2.19300	4.02700	0.10500	72.0	72.0	72.0	1.0000	0.00	0	-360.0	360.0;
    1382	382	2.72700	4.79600	0.07200	93.0	93.0	93.0	1.0000	0.00	0	-360.0	360.0;
    1382	384	0.12900	0.74000	0.61800	101.0	101.0	101.0	1.0000	0.00	0	-360.0	360.0;
    1398	382	6.76700	12.27900	0.18100	40.0	40.0	40.0	1.0000	0.00	0	-360.0	360.0;
    1398	398	2.34500	4.96500	0.07000	95.0	95.0	95.0	1.0000	0.00	0	-360.0	360.0;
    1400	1405	0.00700	0.03500	0.07300	250.0	250.0	250.0	1.0000	0.00	0	-360.0	360.0;
    1405	1406	0.05700	0.27100	0.56000	250.0	250.0	250.0	1.0000	0.00	0	-360.0	360.0;
...
];

%% Costos de Generación (Input requerido)
%  1=piecewise linear, 2=polynomial; startup; shutdown; n; x1 y1 ... / cn ... c0
mpc.gencost = zeros(19, 7);
mpc.gencost(:, 1) = 2; % Modelo polinomial por defecto
mpc.gencost(:, 4) = 3; % Polinomio de orden 2 (3 coeficientes)

return;
